AlH3O3
APtclcactv06082508423D 0   0.00000     0.00000
 
  7  6  0  0  0  0  0  0  0  0999 V2000
   -0.0000    0.0000   -0.0017 Al  0  4  0  0  0  0  0  0  0  0  0  0
   -1.5242    0.8800    0.0008 O   0  4  0  0  0  0  0  0  0  0  0  0
   -2.3989    1.3850    0.0022 H   0  0  0  0  0  0  0  0  0  0  0  0
    1.5242    0.8800    0.0008 O   0  4  0  0  0  0  0  0  0  0  0  0
    2.3989    1.3850    0.0022 H   0  0  0  0  0  0  0  0  0  0  0  0
    0.0000   -1.7600    0.0008 O   0  4  0  0  0  0  0  0  0  0  0  0
    0.0000   -2.7700    0.0022 H   0  0  0  0  0  0  0  0  0  0  0  0
  1  2  1  0  0  0  0
  2  3  1  0  0  0  0
  1  4  1  0  0  0  0
  4  5  1  0  0  0  0
  1  6  1  0  0  0  0
  6  7  1  0  0  0  0
M  CHG  4   1   3   2  -1   4  -1   6  -1
M  RAD  4   1   2   2   2   4   2   6   2
M  END
$$$$
