CaH2
APtclcactv06082509413D 0   0.00000     0.00000
 
  3  2  0  0  0  0  0  0  0  0999 V2000
    0.0000    0.0000    0.0000 Ca  0  2  0  0  0  0  0  0  0  0  0  0
   -1.8800   -0.0000   -0.0000 H   0  4  0  0  0  0  0  0  0  0  0  0
    1.8800   -0.0000   -0.0000 H   0  4  0  0  0  0  0  0  0  0  0  0
  1  2  1  0  0  0  0
  1  3  1  0  0  0  0
M  CHG  3   1   2   2  -1   3  -1
M  RAD  2   2   2   3   2
M  END
$$$$
