Ca2O4S
APtclcactv06082508343D 0   0.00000     0.00000
 
  7  6  0  0  0  0  0  0  0  0999 V2000
   -0.0000    1.0789    0.0000 S   0  0  0  0  0  0  0  0  0  0  0  0
   -0.0000    1.7552   -1.2497 O   0  0  0  0  0  0  0  0  0  0  0  0
   -0.0000    1.7552    1.2497 O   0  0  0  0  0  0  0  0  0  0  0  0
   -1.3363    0.0940    0.0000 O   0  4  0  0  0  0  0  0  0  0  0  0
   -3.0509   -1.1697   -0.0000 Ca  0  3  0  0  0  0  0  0  0  0  0  0
    1.3363    0.0940    0.0000 O   0  4  0  0  0  0  0  0  0  0  0  0
    3.0509   -1.1697   -0.0000 Ca  0  3  0  0  0  0  0  0  0  0  0  0
  1  2  2  0  0  0  0
  1  3  2  0  0  0  0
  1  4  1  0  0  0  0
  4  5  1  0  0  0  0
  1  6  1  0  0  0  0
  6  7  1  0  0  0  0
M  CHG  4   4  -1   5   1   6  -1   7   1
M  RAD  2   4   2   6   2
M  END
$$$$
