C2CuN2S2
APtclcactv06082509343D 0   0.00000     0.00000
 
  7  6  0  0  0  0  0  0  0  0999 V2000
    0.0000    0.0000    0.0000 Cu  0  4  0  0  0  0  0  0  0  0  0  0
    1.9000    0.0000    0.0000 S   0  4  0  0  0  0  0  0  0  0  0  0
    3.7100   -0.0000   -0.0000 C   0  0  0  0  0  0  0  0  0  0  0  0
    4.8460   -0.0000   -0.0000 N   0  0  0  0  0  0  0  0  0  0  0  0
   -1.9000   -0.0000   -0.0000 S   0  4  0  0  0  0  0  0  0  0  0  0
   -3.7100   -0.0000   -0.0000 C   0  0  0  0  0  0  0  0  0  0  0  0
   -4.8460   -0.0000   -0.0000 N   0  0  0  0  0  0  0  0  0  0  0  0
  1  2  1  0  0  0  0
  2  3  1  0  0  0  0
  3  4  3  0  0  0  0
  1  5  1  0  0  0  0
  5  6  1  0  0  0  0
  6  7  3  0  0  0  0
M  CHG  3   1   2   2  -1   5  -1
M  RAD  3   1   2   2   2   5   2
M  END
$$$$
