CuF
APtclcactv06082509093D 0   0.00000     0.00000
 
  2  1  0  0  0  0  0  0  0  0999 V2000
   -0.3337    0.0000    0.0000 Cu  0  4  0  0  0  0  0  0  0  0  0  0
    1.1163    0.0000    0.0000 F   0  4  0  0  0  0  0  0  0  0  0  0
  1  2  1  0  0  0  0
M  CHG  2   1   1   2  -1
M  RAD  2   1   2   2   2
M  END
$$$$
