CuF2
APtclcactv06082509093D 0   0.00000     0.00000
 
  3  2  0  0  0  0  0  0  0  0999 V2000
   -0.0000    0.0000    0.0000 Cu  0  4  0  0  0  0  0  0  0  0  0  0
   -1.4500   -0.0000   -0.0000 F   0  0  0  0  0  0  0  0  0  0  0  0
    1.4500   -0.0000   -0.0000 F   0  0  0  0  0  0  0  0  0  0  0  0
  1  2  1  0  0  0  0
  1  3  1  0  0  0  0
M  RAD  1   1   2
M  END
$$$$
