Cl2Fe
APtclcactv06072523403D 0   0.00000     0.00000
 
  3  2  0  0  0  0  0  0  0  0999 V2000
    0.0000    0.0000    0.0000 Fe  0  0  0  0  0  0  0  0  0  0  0  0
   -2.1500   -0.0000   -0.0000 Cl  0  0  0  0  0  0  0  0  0  0  0  0
    2.1500   -0.0000   -0.0000 Cl  0  0  0  0  0  0  0  0  0  0  0  0
  1  2  1  0  0  0  0
  1  3  1  0  0  0  0
M  END
$$$$
