BH3O3
APtclcactv06082509103D 0   0.00000     0.00000
 
  7  6  0  0  0  0  0  0  0  0999 V2000
   -0.3142   -1.3590   -0.0285 O   0  0  0  0  0  0  0  0  0  0  0  0
   -1.1540   -1.5682    0.4029 H   0  0  0  0  0  0  0  0  0  0  0  0
    0.0180    0.0214   -0.0067 B   0  0  0  0  0  0  0  0  0  0  0  0
    1.3797    0.4238    0.0109 O   0  0  0  0  0  0  0  0  0  0  0  0
    2.0073   -0.3119    0.0065 H   0  0  0  0  0  0  0  0  0  0  0  0
   -1.0114    0.9995   -0.0027 O   0  0  0  0  0  0  0  0  0  0  0  0
   -1.9050    0.6301   -0.0157 H   0  0  0  0  0  0  0  0  0  0  0  0
  1  2  1  0  0  0  0
  1  3  1  0  0  0  0
  3  4  1  0  0  0  0
  4  5  1  0  0  0  0
  3  6  1  0  0  0  0
  6  7  1  0  0  0  0
M  END
$$$$
