CKN
APtclcactv06082509063D 0   0.00000     0.00000
 
  3  2  0  0  0  0  0  0  0  0999 V2000
   -1.1384    0.0345    0.0000 K   0  4  0  0  0  0  0  0  0  0  0  0
    1.3164   -0.4891   -0.0000 C   0  4  0  0  0  0  0  0  0  0  0  0
    2.0487    0.3230    0.0000 N   0  0  0  0  0  0  0  0  0  0  0  0
  1  2  1  0  0  0  0
  2  3  3  0  0  0  0
M  CHG  2   1   1   2  -1
M  RAD  2   1   2   2   2
M  END
$$$$
