IK
APtclcactv06082508583D 0   0.00000     0.00000
 
  2  1  0  0  0  0  0  0  0  0999 V2000
   -0.7208    0.0000    0.0000 I   0  4  0  0  0  0  0  0  0  0  0  0
    2.3392    0.0000    0.0000 K   0  4  0  0  0  0  0  0  0  0  0  0
  1  2  1  0  0  0  0
M  CHG  2   1  -1   2   1
M  RAD  2   1   2   2   2
M  END
$$$$
