IKO4
APtclcactv06082509253D 0   0.00000     0.00000
 
  6  5  0  0  0  0  0  0  0  0999 V2000
   -0.6315    0.0023    0.0000 I   0  0  0  0  0  0  0  0  0  0  0  0
   -0.6242    0.9858   -1.3909 O   0  0  0  0  0  0  0  0  0  0  0  0
   -0.6242    0.9858    1.3909 O   0  0  0  0  0  0  0  0  0  0  0  0
   -2.0296   -0.9710    0.0000 O   0  0  0  0  0  0  0  0  0  0  0  0
    0.9605   -1.1411    0.0000 O   0  0  0  0  0  0  0  0  0  0  0  0
    2.9978    0.0501    0.0000 K   0  0  0  0  0  0  0  0  0  0  0  0
  1  2  2  0  0  0  0
  1  3  2  0  0  0  0
  1  4  2  0  0  0  0
  1  5  1  0  0  0  0
  5  6  1  0  0  0  0
M  END
$$$$
