KNO3
APtclcactv06082508363D 0   0.00000     0.00000
 
  5  4  0  0  0  0  0  0  0  0999 V2000
    2.0646   -1.0548   -0.0008 O   0  5  0  0  0  0  0  0  0  0  0  0
    1.4556   -0.0000    0.0015 N   0  3  0  0  0  0  0  0  0  0  0  0
    2.0646    1.0548   -0.0008 O   0  0  0  0  0  0  0  0  0  0  0  0
    0.1056   -0.0000    0.0009 O   0  4  0  0  0  0  0  0  0  0  0  0
   -2.2544    0.0000   -0.0002 K   0  4  0  0  0  0  0  0  0  0  0  0
  1  2  1  0  0  0  0
  2  3  2  0  0  0  0
  2  4  1  0  0  0  0
  4  5  1  0  0  0  0
M  CHG  4   1  -1   2   1   4  -1   5   1
M  RAD  2   4   2   5   2
M  END
$$$$
