HKO
APtclcactv06082508413D 0   0.00000     0.00000
 
  3  2  0  0  0  0  0  0  0  0999 V2000
    1.6265    0.0000    0.0000 O   0  4  0  0  0  0  0  0  0  0  0  0
   -0.7335   -0.0000   -0.0000 K   0  4  0  0  0  0  0  0  0  0  0  0
    2.6365   -0.0000   -0.0000 H   0  0  0  0  0  0  0  0  0  0  0  0
  1  2  1  0  0  0  0
  1  3  1  0  0  0  0
M  CHG  2   1  -1   2   1
M  RAD  2   1   2   2   2
M  END
$$$$
