CKNS
APtclcactv06082509163D 0   0.00000     0.00000
 
  4  3  0  0  0  0  0  0  0  0999 V2000
   -2.2979   -0.0000   -0.0000 K   0  4  0  0  0  0  0  0  0  0  0  0
    0.4621    0.0000    0.0000 S   0  4  0  0  0  0  0  0  0  0  0  0
    2.2721   -0.0000   -0.0000 C   0  0  0  0  0  0  0  0  0  0  0  0
    3.4081   -0.0000   -0.0000 N   0  0  0  0  0  0  0  0  0  0  0  0
  1  2  1  0  0  0  0
  2  3  1  0  0  0  0
  3  4  3  0  0  0  0
M  CHG  2   1   1   2  -1
M  RAD  2   1   2   2   2
M  END
$$$$
