CLi2O3
APtclcactv06082509213D 0   0.00000     0.00000
 
  6  5  0  0  0  0  0  0  0  0999 V2000
   -1.2211   -0.3756   -0.0004 O   0  4  0  0  0  0  0  0  0  0  0  0
   -2.6327   -1.1906    0.0012 Li  0  4  0  0  0  0  0  0  0  0  0  0
   -0.0000    0.3294   -0.0017 C   0  0  0  0  0  0  0  0  0  0  0  0
    0.0000    1.5370    0.0009 O   0  0  0  0  0  0  0  0  0  0  0  0
    1.2211   -0.3756   -0.0004 O   0  4  0  0  0  0  0  0  0  0  0  0
    2.6327   -1.1906    0.0012 Li  0  4  0  0  0  0  0  0  0  0  0  0
  1  2  1  0  0  0  0
  1  3  1  0  0  0  0
  3  4  2  0  0  0  0
  3  5  1  0  0  0  0
  5  6  1  0  0  0  0
M  CHG  4   1  -1   2   1   5  -1   6   1
M  RAD  4   1   2   2   2   5   2   6   2
M  END
$$$$
