Li2S
APtclcactv06082509253D 0   0.00000     0.00000
 
  3  2  0  0  0  0  0  0  0  0999 V2000
    0.0000   -0.3818   -0.0000 S   0  0  0  0  0  0  0  0  0  0  0  0
   -1.5887    0.8819    0.0000 Li  0  0  0  0  0  0  0  0  0  0  0  0
    1.5887    0.8819    0.0000 Li  0  0  0  0  0  0  0  0  0  0  0  0
  1  2  1  0  0  0  0
  1  3  1  0  0  0  0
M  END
$$$$
