Cl2Mg
APtclcactv06082508243D 0   0.00000     0.00000
 
  3  2  0  0  0  0  0  0  0  0999 V2000
   -2.2000   -0.0000   -0.0000 Cl  0  4  0  0  0  0  0  0  0  0  0  0
   -0.0000    0.0000    0.0000 Mg  0  2  0  0  0  0  0  0  0  0  0  0
    2.2000   -0.0000   -0.0000 Cl  0  4  0  0  0  0  0  0  0  0  0  0
  1  2  1  0  0  0  0
  2  3  1  0  0  0  0
M  CHG  3   1  -1   2   2   3  -1
M  RAD  2   1   2   3   2
M  END
$$$$
