C2Na2O4
APtclcactv06082508583D 0   0.00000     0.00000
 
  8  7  0  0  0  0  0  0  0  0999 V2000
   -1.6908   -0.7175    0.0000 O   0  0  0  0  0  0  0  0  0  0  0  0
   -3.5681   -0.0571   -0.0000 Na  0  0  0  0  0  0  0  0  0  0  0  0
   -0.7168    0.2107    0.0000 C   0  0  0  0  0  0  0  0  0  0  0  0
    0.7168   -0.2107    0.0000 C   0  0  0  0  0  0  0  0  0  0  0  0
    1.0023   -1.3891    0.0000 O   0  0  0  0  0  0  0  0  0  0  0  0
    1.6908    0.7175    0.0000 O   0  0  0  0  0  0  0  0  0  0  0  0
    3.5681    0.0571   -0.0000 Na  0  0  0  0  0  0  0  0  0  0  0  0
   -1.0023    1.3891    0.0000 O   0  0  0  0  0  0  0  0  0  0  0  0
  1  2  1  0  0  0  0
  1  3  1  0  0  0  0
  3  4  1  0  0  0  0
  4  5  2  0  0  0  0
  4  6  1  0  0  0  0
  6  7  1  0  0  0  0
  3  8  2  0  0  0  0
M  END
$$$$
