Na2O4S
APtclcactv06082508333D 0   0.00000     0.00000
 
  7  6  0  0  0  0  0  0  0  0999 V2000
   -0.0000    0.7705    0.0000 S   0  0  0  0  0  0  0  0  0  0  0  0
   -0.0000    1.4468   -1.2497 O   0  0  0  0  0  0  0  0  0  0  0  0
   -0.0000    1.4468    1.2497 O   0  0  0  0  0  0  0  0  0  0  0  0
   -1.3363   -0.2144   -0.0000 O   0  4  0  0  0  0  0  0  0  0  0  0
   -2.9382   -1.3950   -0.0000 Na  0  4  0  0  0  0  0  0  0  0  0  0
    1.3363   -0.2144   -0.0000 O   0  4  0  0  0  0  0  0  0  0  0  0
    2.9382   -1.3950   -0.0000 Na  0  4  0  0  0  0  0  0  0  0  0  0
  1  2  2  0  0  0  0
  1  3  2  0  0  0  0
  1  4  1  0  0  0  0
  4  5  1  0  0  0  0
  1  6  1  0  0  0  0
  6  7  1  0  0  0  0
M  CHG  4   4  -1   5   1   6  -1   7   1
M  RAD  4   4   2   5   2   6   2   7   2
M  END
$$$$
