Na2O3S2
APtclcactv06082508563D 0   0.00000     0.00000
 
  7  6  0  0  0  0  0  0  0  0999 V2000
   -0.0000    0.4410    0.3180 S   0  0  0  0  0  0  0  0  0  0  0  0
   -0.0000    0.9021    1.6621 O   0  0  0  0  0  0  0  0  0  0  0  0
    1.3554   -0.4787    0.0486 O   0  4  0  0  0  0  0  0  0  0  0  0
    2.9802   -1.5813   -0.2745 Na  0  4  0  0  0  0  0  0  0  0  0  0
   -1.3554   -0.4787    0.0486 O   0  4  0  0  0  0  0  0  0  0  0  0
   -2.9802   -1.5813   -0.2745 Na  0  4  0  0  0  0  0  0  0  0  0  0
    0.0000    1.8544   -0.8024 S   0  0  0  0  0  0  0  0  0  0  0  0
  1  2  2  0  0  0  0
  1  3  1  0  0  0  0
  3  4  1  0  0  0  0
  1  5  1  0  0  0  0
  5  6  1  0  0  0  0
  1  7  2  0  0  0  0
M  CHG  4   3  -1   4   1   5  -1   6   1
M  RAD  4   3   2   4   2   5   2   6   2
M  END
$$$$
