ClNaO
APtclcactv06082508553D 0   0.00000     0.00000
 
  3  2  0  0  0  0  0  0  0  0999 V2000
   -1.4631   -0.0000   -0.0000 Cl  0  0  0  0  0  0  0  0  0  0  0  0
    0.1569    0.0000    0.0000 O   0  4  0  0  0  0  0  0  0  0  0  0
    2.1469   -0.0000   -0.0000 Na  0  4  0  0  0  0  0  0  0  0  0  0
  1  2  1  0  0  0  0
  2  3  1  0  0  0  0
M  CHG  2   2  -1   3   1
M  RAD  2   2   2   3   2
M  END
$$$$
