CHNaO3
APtclcactv06082508383D 0   0.00000     0.00000
 
  6  5  0  0  0  0  0  0  0  0999 V2000
   -2.4633   -0.0508    0.0004 Na  0  4  0  0  0  0  0  0  0  0  0  0
   -0.4745    0.0189   -0.0008 O   0  4  0  0  0  0  0  0  0  0  0  0
    0.9347    0.0682   -0.0016 C   0  0  0  0  0  0  0  0  0  0  0  0
    1.5018    1.1351    0.0007 O   0  0  0  0  0  0  0  0  0  0  0  0
    1.6461   -1.0700    0.0007 O   0  0  0  0  0  0  0  0  0  0  0  0
    2.6094   -0.9857   -0.0000 H   0  0  0  0  0  0  0  0  0  0  0  0
  1  2  1  0  0  0  0
  2  3  1  0  0  0  0
  3  4  2  0  0  0  0
  3  5  1  0  0  0  0
  5  6  1  0  0  0  0
M  CHG  2   1   1   2  -1
M  RAD  2   1   2   2   2
M  END
$$$$
