INaO4
APtclcactv06082509263D 0   0.00000     0.00000
 
  6  5  0  0  0  0  0  0  0  0999 V2000
   -0.3723    0.0007    0.0000 I   0  0  0  0  0  0  0  0  0  0  0  0
   -0.4323    0.9824   -1.3909 O   0  0  0  0  0  0  0  0  0  0  0  0
   -0.4323    0.9824    1.3909 O   0  0  0  0  0  0  0  0  0  0  0  0
   -1.7006   -1.0659    0.0000 O   0  0  0  0  0  0  0  0  0  0  0  0
    1.2941   -1.0312   -0.0000 O   0  0  0  0  0  0  0  0  0  0  0  0
    2.9394    0.0883    0.0000 Na  0  0  0  0  0  0  0  0  0  0  0  0
  1  2  2  0  0  0  0
  1  3  2  0  0  0  0
  1  4  2  0  0  0  0
  1  5  1  0  0  0  0
  5  6  1  0  0  0  0
M  END
$$$$
