NNaO3
APtclcactv06082508363D 0   0.00000     0.00000
 
  5  4  0  0  0  0  0  0  0  0999 V2000
   -2.4118    0.0000    0.0004 Na  0  4  0  0  0  0  0  0  0  0  0  0
   -0.4218    0.0000   -0.0007 O   0  4  0  0  0  0  0  0  0  0  0  0
    0.9282    0.0000   -0.0015 N   0  3  0  0  0  0  0  0  0  0  0  0
    1.5372    1.0548    0.0007 O   0  0  0  0  0  0  0  0  0  0  0  0
    1.5372   -1.0548    0.0007 O   0  5  0  0  0  0  0  0  0  0  0  0
  1  2  1  0  0  0  0
  2  3  1  0  0  0  0
  3  4  2  0  0  0  0
  3  5  1  0  0  0  0
M  CHG  4   1   1   2  -1   3   1   5  -1
M  RAD  2   1   2   2   2
M  END
$$$$
