CNNaS
APtclcactv06082509303D 0   0.00000     0.00000
 
  4  3  0  0  0  0  0  0  0  0999 V2000
   -0.0995    0.0000    0.0000 S   0  4  0  0  0  0  0  0  0  0  0  0
   -2.4895   -0.0000   -0.0000 Na  0  4  0  0  0  0  0  0  0  0  0  0
    1.7105   -0.0000   -0.0000 C   0  0  0  0  0  0  0  0  0  0  0  0
    2.8465   -0.0000   -0.0000 N   0  0  0  0  0  0  0  0  0  0  0  0
  1  2  1  0  0  0  0
  1  3  1  0  0  0  0
  3  4  3  0  0  0  0
M  CHG  2   1  -1   2   1
M  RAD  2   1   2   2   2
M  END
$$$$
