N2O6Zn
APtclcactv06082508543D 0   0.00000     0.00000
 
  9  8  0  0  0  0  0  0  0  0999 V2000
    0.0000   -0.0000   -0.0004 Zn  0  2  0  0  0  0  0  0  0  0  0  0
    1.7000   -0.0000   -0.0008 O   0  4  0  0  0  0  0  0  0  0  0  0
    3.0500   -0.0000   -0.0012 N   0  3  0  0  0  0  0  0  0  0  0  0
    3.6590    1.0548   -0.0001 O   0  0  0  0  0  0  0  0  0  0  0  0
    3.6590   -1.0548    0.0025 O   0  5  0  0  0  0  0  0  0  0  0  0
   -1.7000    0.0000   -0.0000 O   0  4  0  0  0  0  0  0  0  0  0  0
   -3.0500    0.0000    0.0003 N   0  3  0  0  0  0  0  0  0  0  0  0
   -3.6590   -1.0548   -0.0008 O   0  0  0  0  0  0  0  0  0  0  0  0
   -3.6590    1.0548    0.0017 O   0  5  0  0  0  0  0  0  0  0  0  0
  1  2  1  0  0  0  0
  2  3  1  0  0  0  0
  3  4  2  0  0  0  0
  3  5  1  0  0  0  0
  1  6  1  0  0  0  0
  6  7  1  0  0  0  0
  7  8  2  0  0  0  0
  7  9  1  0  0  0  0
M  CHG  7   1   2   2  -1   3   1   5  -1   6  -1   7   1   9  -1
M  RAD  2   2   2   6   2
M  END
$$$$
