CH2O3Zn
APtclcactv06082509363D 0   0.00000     0.00000
 
  7  5  0  0  0  0  0  0  0  0999 V2000
   -4.9982   -0.0111   -0.0281 Zn  0  0  0  0  0  0  0  0  0  0  0  0
    4.1248    0.3034    0.6349 O   0  0  0  0  0  0  0  0  0  0  0  0
    3.8604    1.2314    0.6973 H   0  0  0  0  0  0  0  0  0  0  0  0
    5.2897    0.0405    0.0153 C   0  0  0  0  0  0  0  0  0  0  0  0
    5.9566    0.9499   -0.4350 O   0  0  0  0  0  0  0  0  0  0  0  0
    5.7157   -1.2298   -0.1054 O   0  0  0  0  0  0  0  0  0  0  0  0
    6.5586   -1.3690   -0.5583 H   0  0  0  0  0  0  0  0  0  0  0  0
  2  3  1  0  0  0  0
  2  4  1  0  0  0  0
  4  5  2  0  0  0  0
  4  6  1  0  0  0  0
  6  7  1  0  0  0  0
M  END
$$$$
